8
angstrom,  converg "boat"  Fin TE = -50.1964295248 Ry
H        3.691010952   1.736531294  10.886326040
H        3.691010952   3.946151458  10.886326040
C        3.691010952   2.065084487  11.946974180
C        3.691010952   3.617598265  11.946974180
C        2.460673809  -0.065942798  12.590475218
C        2.460673809   1.486613546  12.590475218
H        2.460673809  -0.394521761  13.651076551
H        2.460673809   1.815192509  13.651076551
